Version 4
SHEET 1 1896 1432
WIRE -1152 272 -1232 272
WIRE -1232 304 -1232 272
WIRE -1152 352 -1152 272
WIRE -1504 368 -1760 368
WIRE -1216 368 -1504 368
WIRE -944 368 -944 352
WIRE -1760 384 -1760 368
WIRE -896 416 -992 416
WIRE -528 416 -896 416
WIRE -896 432 -896 416
WIRE -352 448 -352 400
WIRE -1216 464 -1216 432
WIRE -1152 480 -1152 448
WIRE -1040 480 -1152 480
WIRE -992 480 -992 416
WIRE -992 480 -1040 480
WIRE -1760 496 -1760 464
WIRE -1152 496 -1152 480
WIRE -528 512 -528 416
WIRE -480 512 -528 512
WIRE -112 512 -224 512
WIRE -64 512 -112 512
WIRE 0 512 -64 512
WIRE 112 512 80 512
WIRE 192 512 112 512
WIRE 256 512 192 512
WIRE -896 528 -896 512
WIRE -768 528 -896 528
WIRE -896 544 -896 528
WIRE 112 544 112 512
WIRE -2112 576 -2112 560
WIRE -480 576 -528 576
WIRE -176 576 -224 576
WIRE -1152 592 -1152 560
WIRE -1056 592 -1152 592
WIRE -992 592 -1056 592
WIRE -176 592 -176 576
WIRE -1152 608 -1152 592
WIRE -1504 624 -1760 624
WIRE -1216 624 -1504 624
WIRE -1760 640 -1760 624
WIRE -992 640 -992 592
WIRE -896 640 -896 624
WIRE -896 640 -992 640
WIRE -528 640 -528 576
WIRE -528 640 -896 640
WIRE -144 640 -224 640
WIRE -528 704 -576 704
WIRE -480 704 -528 704
WIRE -144 704 -224 704
WIRE -1216 720 -1216 688
WIRE -1152 720 -1152 704
WIRE -1760 752 -1760 720
WIRE -352 768 -352 752
WIRE -352 832 -352 768
WIRE -2176 864 -2176 848
WIRE -2064 864 -2064 848
WIRE -1136 896 -1136 864
WIRE -1312 960 -1328 960
WIRE -1264 960 -1312 960
WIRE -976 960 -1008 960
WIRE -960 960 -976 960
WIRE -80 992 -128 992
WIRE 0 992 -80 992
WIRE 112 992 80 992
WIRE 192 992 112 992
WIRE 256 992 192 992
WIRE -1328 1024 -1328 960
WIRE -1264 1024 -1328 1024
WIRE -960 1024 -960 960
WIRE -960 1024 -1008 1024
WIRE 112 1024 112 992
WIRE -928 1088 -1008 1088
WIRE -912 1088 -928 1088
WIRE -896 1088 -912 1088
WIRE -816 1088 -832 1088
WIRE -768 1088 -768 528
WIRE -768 1088 -816 1088
WIRE -768 1136 -768 1088
WIRE -1312 1152 -1568 1152
WIRE -1264 1152 -1312 1152
WIRE -928 1152 -928 1088
WIRE -928 1152 -1008 1152
WIRE -1568 1184 -1568 1152
WIRE -1136 1248 -1136 1216
WIRE -768 1248 -768 1216
WIRE -1568 1296 -1568 1264
FLAG -2176 768 +8V
FLAG -2176 864 0
FLAG -2064 768 -8V
FLAG -2064 864 0
FLAG -1040 480 TOP
FLAG -1056 592 BOT
FLAG -1232 304 0
FLAG -1152 720 0
FLAG -352 400 +8V
FLAG -352 832 -8V
FLAG -1568 1296 0
FLAG -176 592 0
FLAG -112 576 0
FLAG -64 512 OUT
FLAG -1136 864 +8V
FLAG -1136 1248 -8V
FLAG -528 704 OSC
FLAG -1312 1152 OSC
FLAG -1312 960 +8V
FLAG -976 960 -8V
FLAG -768 1248 0
FLAG -1216 720 0
FLAG -1216 464 0
FLAG -1504 368 CAPVAL_TOP
FLAG -1504 624 CAPVAL_BOT
FLAG -2112 480 DISP_M
FLAG -2112 576 0
FLAG -1760 496 0
FLAG -1760 752 0
FLAG -912 1088 A
FLAG -816 1088 B
FLAG 112 608 0
FLAG 192 512 OUT_FILT
FLAG 112 1088 0
FLAG 192 992 FILT
FLAG -80 992 DISP_M
SYMBOL voltage -2064 752 R0
WINDOW 0 42 44 Left 0
WINDOW 3 42 74 Left 0
WINDOW 123 0 0 Left 0
WINDOW 39 24 110 Left 0
SYMATTR InstName V2
SYMATTR Value -8
SYMBOL voltage -2176 752 R0
WINDOW 0 39 46 Left 0
WINDOW 3 40 75 Left 0
WINDOW 123 0 0 Left 0
WINDOW 39 0 0 Left 0
SYMATTR InstName V1
SYMATTR Value 8
SYMBOL Opamps\\LTC1043 -352 608 R0
SYMATTR InstName U1
SYMBOL cap -1168 496 R0
SYMATTR InstName C4
SYMATTR Value 76p
SYMBOL res -912 416 R0
SYMATTR InstName R1
SYMATTR Value 20K
SYMBOL res -912 528 R0
SYMATTR InstName R2
SYMATTR Value 20K
SYMBOL cap -160 640 R0
SYMATTR InstName C3
SYMATTR Value 4.7n
SYMBOL voltage -1568 1168 R0
WINDOW 3 16 98 Left 0
WINDOW 123 0 0 Left 0
WINDOW 39 0 0 Left 0
SYMATTR Value PULSE(-8 8 0 0 0 8u 16u 10000000)
SYMATTR InstName V3
SYMBOL cap -128 512 R0
WINDOW 0 40 26 Left 0
WINDOW 3 44 50 Left 0
SYMATTR InstName C5
SYMATTR Value 4.7n
SYMBOL Opamps\\LTC1043 -1136 1056 R0
SYMATTR InstName U2
SYMBOL cap -832 1072 R90
WINDOW 0 0 32 VBottom 0
WINDOW 3 32 32 VTop 0
WINDOW 40 144 32 VTop 0
SYMATTR InstName C6
SYMATTR Value 100n
SYMATTR SpiceLine2 IC=5
SYMBOL res -784 1120 R0
SYMATTR InstName R3
SYMATTR Value 4.7K
SYMBOL tvc -1168 368 R0
SYMATTR InstName C1
SYMATTR Value ""
SYMATTR Prefix X
SYMATTR SpiceModel TVC
SYMBOL tvc -1168 624 R0
SYMATTR InstName C2
SYMATTR Value ""
SYMATTR Prefix X
SYMATTR SpiceModel TVC
SYMBOL bv -1760 368 R0
WINDOW 0 24 16 Invisible 0
SYMATTR InstName B1
SYMATTR Value V=cap_nom+V(Disp_M)*cap_sens
SYMBOL bv -1760 624 R0
WINDOW 0 24 16 Invisible 0
SYMATTR InstName B3
SYMATTR Value V=cap_nom-V(Disp_M)*cap_sens
SYMBOL voltage -2112 464 R0
WINDOW 0 42 44 Left 0
WINDOW 3 42 74 Left 0
WINDOW 123 42 102 Left 0
WINDOW 39 24 110 Left 0
SYMATTR InstName V4
SYMATTR Value PULSE(-10u 10u 5m 50u 50u 5m 10m)
SYMATTR Value2 AC 1e-6
SYMBOL res -16 528 R270
WINDOW 0 32 56 VTop 0
WINDOW 3 0 56 VBottom 0
SYMATTR InstName R4
SYMATTR Value 1meg
SYMBOL cap 96 544 R0
WINDOW 0 32 8 Left 0
WINDOW 3 38 42 Left 0
SYMATTR InstName C7
SYMATTR Value 120p
SYMBOL res -16 1008 R270
WINDOW 0 32 56 VTop 0
WINDOW 3 0 56 VBottom 0
SYMATTR InstName R6
SYMATTR Value 1meg
SYMBOL cap 96 1024 R0
WINDOW 0 32 8 Left 0
WINDOW 3 38 42 Left 0
SYMATTR InstName C9
SYMATTR Value 470p
TEXT -2128 256 Left 0 !.tran 0 25m 4m
TEXT -2128 152 Left 0 !.param cap_sens -27.6e-9
TEXT -2128 184 Left 0 !.param cap_nom 28e-12
TEXT -2128 224 Left 0 !.lib tvc.lib
TEXT -2128 288 Left 0 !;ac dec 50 1m 1k
TEXT -1720 152 Left 0 ;F/m sensitivity
TEXT -1720 184 Left 0 ;F nominal capacitance
TEXT -1104 88 Left 0 ;Differential capacitive position sensor
TEXT -1544 384 Left 0 ;1V = 1F
TEXT -2072 472 Left 0 ;1V = 1m
TEXT -2072 440 Left 0 ;Displacement
TEXT -1520 1232 Left 0 ;62.5 KHz clock
TEXT -80 928 Left 0 ;Test output for comparison
